Version 4
SHEET 1 916 680
WIRE -848 -224 -848 -256
WIRE -848 -96 -848 -144
WIRE -848 -96 -864 -96
WIRE -848 -64 -848 -96
WIRE 112 -32 48 -32
WIRE 224 -32 192 -32
WIRE 528 16 464 16
WIRE 656 16 608 16
WIRE 704 16 656 16
WIRE 752 16 704 16
WIRE 784 16 752 16
WIRE 896 16 864 16
WIRE -848 48 -848 16
WIRE 656 64 656 16
WIRE 752 64 752 16
WIRE 48 128 48 -32
WIRE 64 128 48 128
WIRE 112 128 64 128
WIRE 144 128 144 64
WIRE 224 144 224 -32
WIRE 224 144 176 144
WIRE 288 144 224 144
WIRE 656 144 656 128
WIRE 656 144 288 144
WIRE 112 160 80 160
WIRE 752 176 752 128
WIRE 752 176 688 176
WIRE 224 192 224 144
WIRE 144 224 144 160
WIRE 688 224 688 176
WIRE 80 288 80 160
WIRE 224 288 224 272
WIRE 224 288 80 288
WIRE 224 320 224 288
WIRE 48 336 48 128
WIRE 48 416 48 400
WIRE 144 416 48 416
WIRE 224 416 224 400
WIRE 224 416 144 416
WIRE 144 432 144 416
FLAG -864 -96 0
FLAG -848 -256 V+
FLAG -848 48 V-
FLAG 144 64 V+
FLAG 464 16 V+
FLAG 896 16 0
FLAG 688 224 V+
FLAG 704 16 ANDV
FLAG 288 144 CLK
FLAG 64 128 cap
FLAG 688 176 IN2
FLAG 144 432 0
FLAG 144 224 V-
SYMBOL LF351 144 144 R0
SYMATTR InstName U1
SYMBOL voltage -848 -240 R0
WINDOW 123 0 0 Left 0
WINDOW 39 0 0 Left 0
SYMATTR InstName V1
SYMATTR Value 5
SYMBOL voltage -848 -80 R0
WINDOW 123 0 0 Left 0
WINDOW 39 0 0 Left 0
SYMATTR InstName V2
SYMATTR Value 5
SYMBOL res 208 -48 R90
WINDOW 0 0 56 VBottom 2
WINDOW 3 32 56 VTop 2
SYMATTR InstName R1
SYMATTR Value 10k
SYMBOL res 240 288 R180
WINDOW 0 36 76 Left 2
WINDOW 3 36 40 Left 2
SYMATTR InstName R2
SYMATTR Value 10k
SYMBOL res 240 416 R180
WINDOW 0 36 76 Left 2
WINDOW 3 36 40 Left 2
SYMATTR InstName R3
SYMATTR Value 10k
SYMBOL cap 32 336 R0
SYMATTR InstName C1
SYMATTR Value 22µF
SYMBOL res 624 0 R90
WINDOW 0 0 56 VBottom 2
WINDOW 3 32 56 VTop 2
SYMATTR InstName R4
SYMATTR Value 1k
SYMBOL diode 640 64 R0
SYMATTR InstName D1
SYMATTR Value 1N914
SYMBOL diode 736 64 R0
SYMATTR InstName D2
SYMATTR Value 1N914
SYMBOL res 880 0 R90
WINDOW 0 0 56 VBottom 2
WINDOW 3 32 56 VTop 2
SYMATTR InstName R5
SYMATTR Value 1k
TEXT -888 456 Left 2 !.tran 2 startup
